Version 4
SHEET 1 1552 732
WIRE 208 80 64 80
WIRE 416 80 272 80
WIRE 416 112 416 80
WIRE 64 160 64 80
WIRE 64 288 64 240
WIRE 416 288 416 192
FLAG 64 288 0
FLAG 416 288 0
SYMBOL res 400 96 R0
SYMATTR InstName R1
SYMATTR Value 20
SYMBOL voltage 64 144 R0
WINDOW 123 0 0 Left 0
WINDOW 39 24 124 Left 2
SYMATTR SpiceLine Rser=.1
SYMATTR InstName V1
SYMATTR Value 3.7
SYMBOL schottky 208 96 R270
WINDOW 0 32 32 VTop 2
WINDOW 3 0 32 VBottom 2
SYMATTR InstName D1
SYMATTR Value CUS10S30
SYMATTR Prefix X
TEXT 32 312 Left 2 !.dc v1 -4.2 4.2 .01
TEXT 584 128 Left 2 !.lib CUS10S30.lib
